*SPEF "ieee 1481-1999"
*DESIGN "async_counter"
*DATE "11:11:11 Fri 11 11, 1111"
*VENDOR "OpenRCX"
*PROGRAM "Parallel Extraction"
*VERSION "1.0"
*DESIGN_FLOW "NAME_SCOPE LOCAL" "PIN_CAP NONE"
*DIVIDER /
*DELIMITER :
*BUS_DELIMITER []
*T_UNIT 1 NS
*C_UNIT 1 PF
*R_UNIT 1 OHM
*L_UNIT 1 HENRY

*NAME_MAP
*1 out_bit
*2 ring_Fout
*3 v_bias
*4 v_inn
*5 one_bit
*6 PHY_0
*7 PHY_1
*8 PHY_2
*9 PHY_3
*10 PHY_4
*11 PHY_5
*12 PHY_6
*13 PHY_7
*14 PHY_8
*15 PHY_9
*16 PHY_10
*17 PHY_11
*18 PHY_12
*19 PHY_13
*20 PHY_14
*21 PHY_15
*22 PHY_16
*23 PHY_17
*24 PHY_18
*25 PHY_19
*26 PHY_20
*27 PHY_21
*28 PHY_22
*29 PHY_23
*30 PHY_24
*31 PHY_25
*32 PHY_26
*33 PHY_27
*34 PHY_28
*35 PHY_29
*36 PHY_30
*37 PHY_31
*38 PHY_32
*39 PHY_33
*40 PHY_34
*41 PHY_35
*42 PHY_36
*43 PHY_37
*44 PHY_38
*45 PHY_39
*46 PHY_40
*47 PHY_41
*48 PHY_42
*49 PHY_43
*50 PHY_44
*51 PHY_45
*52 PHY_46
*53 PHY_47
*54 PHY_48
*55 PHY_49
*56 PHY_50
*57 PHY_51
*58 PHY_52
*59 PHY_53
*60 PHY_54
*61 PHY_55
*62 PHY_56
*63 PHY_57
*64 PHY_58
*65 PHY_59
*66 PHY_60
*67 PHY_61
*68 PHY_62
*69 PHY_63
*70 PHY_64
*71 PHY_65
*72 PHY_66
*73 PHY_67
*74 PHY_68
*75 PHY_69
*76 PHY_70
*77 PHY_71
*78 PHY_72
*79 PHY_73
*80 PHY_74
*81 PHY_75
*82 PHY_76
*83 PHY_77
*84 PHY_78
*85 PHY_79
*86 PHY_80
*87 PHY_81
*88 PHY_82
*89 PHY_83
*90 PHY_84
*91 PHY_85
*92 PHY_86
*93 PHY_87
*94 PHY_88
*95 PHY_89
*96 PHY_90
*97 PHY_91
*98 PHY_92
*99 PHY_93
*100 PHY_94
*101 PHY_95
*102 PHY_96
*103 PHY_97
*104 PHY_98
*105 PHY_99
*106 PHY_100
*107 PHY_101
*108 PHY_102
*109 PHY_103
*110 PHY_104
*111 PHY_105
*112 PHY_106
*113 PHY_107
*114 PHY_108
*115 PHY_109
*116 PHY_110
*117 PHY_111
*118 PHY_112
*119 PHY_113
*120 PHY_114
*121 PHY_115
*122 PHY_116
*123 PHY_117
*124 PHY_118
*125 PHY_119
*126 PHY_120
*127 PHY_121
*128 PHY_122
*129 PHY_123
*130 PHY_124
*131 PHY_125
*132 PHY_126
*133 PHY_127
*134 PHY_128
*135 PHY_129
*136 PHY_130
*137 PHY_131
*138 PHY_132
*139 PHY_133
*140 PHY_134
*141 PHY_135
*142 PHY_136
*143 PHY_137
*144 PHY_138
*145 PHY_139
*146 PHY_140
*147 PHY_141
*148 PHY_142
*149 PHY_143
*150 PHY_144
*151 PHY_145
*152 PHY_146
*153 PHY_147
*154 PHY_148
*155 PHY_149
*156 PHY_150
*157 PHY_151
*158 PHY_152
*159 PHY_153
*160 PHY_154
*161 PHY_155
*162 PHY_156
*163 PHY_157
*164 PHY_158
*165 PHY_159
*166 PHY_160
*167 PHY_161
*168 PHY_162
*169 PHY_163
*170 PHY_164
*171 PHY_165
*172 PHY_166
*173 PHY_167
*174 PHY_168
*175 PHY_169
*176 PHY_170
*177 PHY_171
*178 PHY_172
*179 PHY_173
*180 PHY_174
*181 PHY_175
*182 PHY_176
*183 PHY_177
*184 PHY_178
*185 PHY_179
*186 PHY_180
*187 PHY_181
*188 PHY_182
*189 PHY_183
*190 PHY_184
*191 PHY_185
*192 PHY_186
*193 PHY_187
*194 TAP_188
*195 TAP_189
*196 TAP_190
*197 TAP_191
*198 TAP_192
*199 TAP_193
*200 TAP_194
*201 TAP_195
*202 TAP_196
*203 TAP_197
*204 TAP_198
*205 TAP_199
*206 TAP_200
*207 TAP_201
*208 TAP_202
*209 TAP_203
*210 TAP_204
*211 TAP_205
*212 TAP_206
*213 TAP_207
*214 TAP_208
*215 TAP_209
*216 TAP_210
*217 TAP_211
*218 TAP_212
*219 TAP_213
*220 TAP_214
*221 TAP_215
*222 TAP_216
*223 TAP_217
*224 TAP_218
*225 TAP_219
*226 TAP_220
*227 TAP_221
*228 TAP_222
*229 TAP_223
*230 TAP_224
*231 TAP_225
*232 TAP_226
*233 TAP_227
*234 TAP_228
*235 TAP_229
*236 TAP_230
*237 TAP_231
*238 TAP_232
*239 TAP_233
*240 TAP_234
*241 TAP_235
*242 TAP_236
*243 TAP_237
*244 TAP_238
*245 TAP_239
*246 TAP_240
*247 TAP_241
*248 TAP_242
*249 TAP_243
*250 TAP_244
*251 TAP_245
*252 TAP_246
*253 TAP_247
*254 TAP_248
*255 TAP_249
*256 TAP_250
*257 TAP_251
*258 TAP_252
*259 TAP_253
*260 TAP_254
*261 TAP_255
*262 TAP_256
*263 TAP_257
*264 TAP_258
*265 TAP_259
*266 TAP_260
*267 TAP_261
*268 TAP_262
*269 TAP_263
*270 TAP_264
*271 TAP_265
*272 TAP_266
*273 TAP_267
*274 TAP_268
*275 TAP_269
*276 TAP_270
*277 TAP_271
*278 TAP_272
*279 TAP_273
*280 TAP_274
*281 TAP_275
*282 TAP_276
*283 TAP_277
*284 TAP_278
*285 TAP_279
*286 TAP_280
*287 TAP_281
*288 TAP_282
*289 TAP_283
*290 TAP_284
*291 TAP_285
*292 TAP_286
*293 TAP_287
*294 TAP_288
*295 TAP_289
*296 TAP_290
*297 TAP_291
*298 TAP_292
*299 TAP_293
*300 TAP_294
*301 TAP_295
*302 TAP_296
*303 TAP_297
*304 TAP_298
*305 TAP_299
*306 TAP_300
*307 TAP_301
*308 TAP_302
*309 TAP_303
*310 TAP_304
*311 TAP_305
*312 TAP_306
*313 TAP_307
*314 TAP_308
*315 TAP_309
*316 TAP_310
*317 TAP_311
*318 TAP_312
*319 TAP_313
*320 TAP_314
*321 TAP_315
*322 TAP_316
*323 TAP_317
*324 TAP_318
*325 TAP_319
*326 TAP_320
*327 TAP_321
*328 TAP_322
*329 TAP_323
*330 TAP_324
*331 TAP_325
*332 TAP_326
*333 TAP_327
*334 TAP_328
*335 TAP_329
*336 TAP_330
*337 TAP_331
*338 TAP_332
*339 TAP_333
*340 TAP_334
*341 TAP_335
*342 TAP_336
*343 TAP_337
*344 TAP_338
*345 TAP_339
*346 TAP_340
*347 TAP_341
*348 TAP_342
*349 TAP_343
*350 TAP_344
*351 TAP_345
*352 TAP_346
*353 TAP_347
*354 TAP_348
*355 TAP_349
*356 TAP_350
*357 TAP_351
*358 TAP_352
*359 TAP_353
*360 TAP_354
*361 TAP_355
*362 TAP_356
*363 TAP_357
*364 TAP_358
*365 TAP_359
*366 TAP_360
*367 TAP_361
*368 TAP_362
*369 TAP_363
*370 TAP_364
*371 TAP_365
*372 TAP_366
*373 TAP_367
*374 TAP_368
*375 TAP_369
*376 TAP_370
*377 TAP_371
*378 TAP_372
*379 TAP_373
*380 TAP_374
*381 TAP_375
*382 TAP_376
*383 TAP_377
*384 TAP_378
*385 TAP_379
*386 TAP_380
*387 TAP_381
*388 TAP_382
*389 TAP_383
*390 TAP_384
*391 TAP_385
*392 TAP_386
*393 TAP_387
*394 TAP_388
*395 TAP_389
*396 TAP_390
*397 TAP_391
*398 TAP_392
*399 TAP_393
*400 TAP_394
*401 TAP_395
*402 TAP_396
*403 TAP_397
*404 TAP_398
*405 TAP_399
*406 TAP_400
*407 TAP_401
*408 TAP_402
*409 TAP_403
*410 TAP_404
*411 TAP_405
*412 TAP_406
*413 TAP_407
*414 TAP_408
*415 TAP_409
*416 TAP_410
*417 TAP_411
*418 TAP_412
*419 TAP_413
*420 TAP_414
*421 TAP_415
*422 TAP_416
*423 TAP_417
*424 TAP_418
*425 TAP_419
*426 TAP_420
*427 TAP_421
*428 TAP_422
*429 TAP_423
*430 TAP_424
*431 TAP_425
*432 TAP_426
*433 TAP_427
*434 TAP_428
*435 TAP_429
*436 TAP_430
*437 TAP_431
*438 TAP_432
*439 TAP_433
*440 TAP_434
*441 TAP_435
*442 TAP_436
*443 TAP_437
*444 TAP_438
*445 TAP_439
*446 TAP_440
*447 TAP_441
*448 TAP_442
*449 TAP_443
*450 TAP_444
*451 TAP_445
*452 TAP_446
*453 TAP_447
*454 TAP_448
*455 TAP_449
*456 TAP_450
*457 TAP_451
*458 TAP_452
*459 TAP_453
*460 TAP_454
*461 TAP_455
*462 TAP_456
*463 TAP_457
*464 TAP_458
*465 TAP_459
*466 TAP_460
*467 TAP_461
*468 TAP_462
*469 TAP_463
*470 TAP_464
*471 TAP_465
*472 TAP_466
*473 TAP_467
*474 TAP_468
*475 TAP_469
*476 TAP_470
*477 TAP_471
*478 TAP_472
*479 TAP_473
*480 TAP_474
*481 TAP_475
*482 TAP_476
*483 TAP_477
*484 TAP_478
*485 TAP_479
*486 TAP_480
*487 TAP_481
*488 TAP_482
*489 TAP_483
*490 TAP_484
*491 TAP_485
*492 TAP_486
*493 TAP_487
*494 TAP_488
*495 TAP_489
*496 TAP_490
*497 TAP_491
*498 TAP_492
*499 TAP_493
*500 TAP_494
*501 TAP_495
*502 TAP_496
*503 TAP_497
*504 TAP_498
*505 TAP_499
*506 TAP_500
*507 TAP_501
*508 TAP_502
*509 TAP_503
*510 TAP_504
*511 TAP_505
*512 TAP_506
*513 TAP_507
*514 TAP_508
*515 TAP_509
*516 TAP_510
*517 TAP_511
*518 TAP_512
*519 TAP_513
*520 TAP_514
*521 TAP_515
*522 TAP_516
*523 TAP_517
*524 TAP_518
*525 TAP_519
*526 TAP_520
*527 TAP_521
*528 TAP_522
*529 TAP_523
*530 TAP_524
*531 TAP_525
*532 TAP_526
*533 TAP_527
*534 TAP_528
*535 TAP_529
*536 TAP_530
*537 TAP_531
*538 TAP_532
*539 TAP_533
*540 TAP_534
*541 TAP_535
*542 TAP_536
*543 TAP_537
*544 TAP_538
*545 TAP_539
*546 TAP_540
*547 TAP_541
*548 TAP_542
*549 TAP_543
*550 TAP_544
*551 TAP_545
*552 TAP_546
*553 TAP_547
*554 TAP_548
*555 TAP_549
*556 TAP_550
*557 TAP_551
*558 TAP_552
*559 TAP_553
*560 TAP_554
*561 TAP_555
*562 TAP_556
*563 TAP_557
*564 TAP_558
*565 TAP_559
*566 TAP_560
*567 TAP_561
*568 TAP_562
*569 TAP_563
*570 TAP_564
*571 TAP_565
*572 TAP_566
*573 TAP_567
*574 TAP_568
*575 TAP_569
*576 TAP_570
*577 TAP_571
*578 TAP_572
*579 TAP_573
*580 TAP_574
*581 TAP_575
*582 TAP_576
*583 TAP_577
*584 TAP_578
*585 TAP_579
*586 TAP_580
*587 TAP_581
*588 TAP_582
*589 TAP_583
*590 TAP_584
*591 TAP_585
*592 TAP_586
*593 TAP_587
*594 TAP_588
*595 TAP_589
*596 TAP_590
*597 TAP_591
*598 TAP_592
*599 TAP_593
*600 TAP_594
*601 TAP_595
*602 TAP_596
*603 TAP_597
*604 TAP_598
*605 TAP_599
*606 TAP_600
*607 TAP_601
*608 TAP_602
*609 TAP_603
*610 TAP_604
*611 TAP_605
*612 TAP_606
*613 TAP_607
*614 TAP_608
*615 TAP_609
*616 TAP_610
*617 TAP_611
*618 TAP_612
*619 TAP_613
*620 TAP_614
*621 TAP_615
*622 TAP_616
*623 TAP_617
*624 TAP_618
*625 TAP_619
*626 TAP_620
*627 TAP_621
*628 TAP_622
*629 TAP_623
*630 TAP_624
*631 TAP_625
*632 TAP_626
*633 TAP_627
*634 TAP_628
*635 TAP_629
*636 TAP_630
*637 TAP_631
*638 TAP_632
*639 TAP_633
*640 TAP_634
*641 TAP_635
*642 TAP_636
*643 TAP_637
*644 TAP_638
*645 TAP_639
*646 TAP_640
*647 TAP_641
*648 TAP_642
*649 TAP_643
*650 TAP_644
*651 TAP_645
*652 TAP_646
*653 TAP_647
*654 TAP_648
*655 TAP_649
*656 TAP_650
*657 TAP_651
*658 TAP_652
*659 TAP_653
*660 TAP_654
*661 TAP_655
*662 TAP_656
*663 TAP_657
*664 TAP_658
*665 TAP_659
*666 TAP_660
*667 TAP_661
*668 TAP_662
*669 TAP_663
*670 TAP_664
*671 TAP_665
*672 TAP_666
*673 TAP_667
*674 TAP_668
*675 TAP_669
*676 TAP_670
*677 TAP_671
*678 TAP_672
*679 TAP_673
*680 TAP_674
*681 TAP_675
*682 TAP_676
*683 TAP_677
*684 TAP_678
*685 TAP_679
*686 TAP_680
*687 TAP_681
*688 TAP_682
*689 TAP_683
*690 TAP_684
*691 TAP_685
*692 TAP_686
*693 TAP_687
*694 TAP_688
*695 TAP_689
*696 TAP_690
*697 TAP_691
*698 TAP_692
*699 TAP_693
*700 TAP_694
*701 TAP_695
*702 TAP_696
*703 TAP_697
*704 TAP_698
*705 TAP_699
*706 TAP_700
*707 TAP_701
*708 TAP_702
*709 TAP_703
*710 TAP_704
*711 TAP_705
*712 TAP_706
*713 TAP_707
*714 TAP_708
*715 TAP_709
*716 TAP_710
*717 TAP_711
*718 TAP_712
*719 TAP_713
*720 TAP_714
*721 TAP_715
*722 TAP_716
*723 TAP_717
*724 TAP_718
*725 TAP_719
*726 TAP_720
*727 TAP_721
*728 TAP_722
*729 TAP_723
*730 TAP_724
*731 TAP_725
*732 TAP_726
*733 TAP_727
*734 TAP_728
*735 TAP_729
*736 TAP_730
*737 TAP_731
*738 TAP_732
*739 TAP_733
*740 TAP_734
*741 TAP_735
*742 TAP_736
*743 TAP_737
*744 TAP_738
*745 TAP_739
*746 TAP_740
*747 TAP_741
*748 TAP_742
*749 TAP_743
*750 TAP_744
*751 TAP_745
*752 TAP_746
*753 TAP_747
*754 TAP_748
*755 TAP_749
*756 TAP_750
*757 TAP_751
*758 TAP_752
*759 TAP_753
*760 TAP_754
*761 TAP_755
*762 TAP_756
*763 TAP_757
*764 TAP_758
*765 TAP_759
*766 TAP_760
*767 TAP_761
*768 TAP_762
*769 TAP_763
*770 TAP_764
*771 TAP_765
*772 TAP_766
*773 TAP_767
*774 TAP_768
*775 TAP_769
*776 TAP_770
*777 TAP_771
*778 TAP_772
*779 TAP_773
*780 TAP_774
*781 TAP_775
*782 TAP_776
*783 TAP_777
*784 TAP_778
*785 TAP_779
*786 TAP_780
*787 TAP_781
*788 TAP_782
*789 TAP_783
*790 TAP_784
*791 TAP_785
*792 TAP_786
*793 TAP_787
*794 TAP_788
*795 TAP_789
*796 TAP_790
*797 TAP_791
*798 TAP_792
*799 TAP_793
*800 TAP_794
*801 TAP_795
*802 TAP_796
*803 TAP_797
*804 TAP_798
*805 TAP_799
*806 TAP_800
*807 TAP_801
*808 TAP_802
*809 TAP_803
*810 TAP_804
*811 TAP_805
*812 TAP_806
*813 TAP_807
*814 TAP_808
*815 TAP_809
*816 TAP_810
*817 TAP_811
*818 TAP_812
*819 TAP_813
*820 TAP_814
*821 TAP_815
*822 TAP_816
*823 TAP_817
*824 TAP_818
*825 TAP_819
*826 TAP_820
*827 TAP_821
*828 TAP_822
*829 TAP_823
*830 TAP_824
*831 TAP_825
*832 TAP_826
*833 TAP_827
*834 TAP_828
*835 TAP_829
*836 TAP_830
*837 TAP_831
*838 TAP_832
*839 TAP_833
*840 TAP_834
*841 TAP_835
*842 TAP_836
*843 TAP_837
*844 TAP_838
*845 TAP_839
*846 TAP_840
*847 TAP_841
*848 TAP_842
*849 TAP_843
*850 TAP_844
*851 TAP_845
*852 TAP_846
*853 TAP_847
*854 TAP_848
*855 TAP_849
*856 TAP_850
*857 TAP_851
*858 TAP_852
*859 TAP_853
*860 TAP_854
*861 TAP_855
*862 TAP_856
*863 TAP_857
*864 TAP_858
*865 TAP_859
*866 TAP_860
*867 TAP_861
*868 TAP_862
*869 TAP_863
*870 TAP_864
*871 TAP_865
*872 TAP_866
*873 TAP_867
*874 TAP_868
*875 TAP_869
*876 TAP_870
*877 TAP_871
*878 TAP_872
*879 TAP_873
*880 TAP_874
*881 TAP_875
*882 TAP_876
*883 TAP_877
*884 TAP_878
*885 TAP_879
*886 TAP_880
*887 TAP_881
*888 TAP_882
*889 TAP_883
*890 TAP_884
*891 TAP_885
*892 TAP_886
*893 TAP_887
*894 TAP_888
*895 TAP_889
*896 TAP_890
*897 FILLER_0_4
*898 FILLER_0_12
*899 FILLER_0_20
*900 FILLER_0_28
*901 FILLER_0_31
*902 FILLER_0_39
*903 FILLER_0_47
*904 FILLER_0_55
*905 FILLER_0_59
*906 FILLER_0_61
*907 FILLER_0_69
*908 FILLER_0_77
*909 FILLER_0_85
*910 FILLER_0_89
*911 FILLER_0_91
*912 FILLER_0_99
*913 FILLER_0_107
*914 FILLER_0_115
*915 FILLER_0_119
*916 FILLER_0_121
*917 FILLER_0_129
*918 FILLER_0_137
*919 FILLER_0_145
*920 FILLER_0_149
*921 FILLER_0_151
*922 FILLER_0_159
*923 FILLER_0_167
*924 FILLER_0_175
*925 FILLER_0_179
*926 FILLER_0_181
*927 FILLER_0_189
*928 FILLER_0_197
*929 FILLER_0_205
*930 FILLER_0_209
*931 FILLER_0_211
*932 FILLER_0_219
*933 FILLER_0_227
*934 FILLER_0_235
*935 FILLER_0_239
*936 FILLER_0_241
*937 FILLER_0_249
*938 FILLER_0_257
*939 FILLER_0_265
*940 FILLER_0_269
*941 FILLER_0_271
*942 FILLER_0_279
*943 FILLER_0_287
*944 FILLER_0_295
*945 FILLER_0_299
*946 FILLER_0_301
*947 FILLER_0_309
*948 FILLER_0_317
*949 FILLER_0_325
*950 FILLER_0_329
*951 FILLER_0_331
*952 FILLER_0_339
*953 FILLER_0_347
*954 FILLER_0_355
*955 FILLER_0_359
*956 FILLER_0_361
*957 FILLER_0_369
*958 FILLER_0_377
*959 FILLER_0_385
*960 FILLER_0_389
*961 FILLER_0_391
*962 FILLER_0_399
*963 FILLER_0_407
*964 FILLER_0_415
*965 FILLER_0_419
*966 FILLER_0_421
*967 FILLER_0_429
*968 FILLER_0_437
*969 FILLER_0_445
*970 FILLER_0_449
*971 FILLER_0_451
*972 FILLER_0_459
*973 FILLER_0_467
*974 FILLER_0_475
*975 FILLER_0_479
*976 FILLER_0_481
*977 FILLER_0_489
*978 FILLER_0_497
*979 FILLER_0_505
*980 FILLER_1_4
*981 FILLER_1_12
*982 FILLER_1_20
*983 FILLER_1_28
*984 FILLER_1_36
*985 FILLER_1_44
*986 FILLER_1_52
*987 FILLER_1_61
*988 FILLER_1_69
*989 FILLER_1_77
*990 FILLER_1_85
*991 FILLER_1_93
*992 FILLER_1_101
*993 FILLER_1_109
*994 FILLER_1_117
*995 FILLER_1_119
*996 FILLER_1_121
*997 FILLER_1_129
*998 FILLER_1_137
*999 FILLER_1_145
*1000 FILLER_1_153
*1001 FILLER_1_161
*1002 FILLER_1_169
*1003 FILLER_1_177
*1004 FILLER_1_179
*1005 FILLER_1_181
*1006 FILLER_1_189
*1007 FILLER_1_197
*1008 FILLER_1_205
*1009 FILLER_1_213
*1010 FILLER_1_221
*1011 FILLER_1_229
*1012 FILLER_1_237
*1013 FILLER_1_239
*1014 FILLER_1_241
*1015 FILLER_1_249
*1016 FILLER_1_257
*1017 FILLER_1_265
*1018 FILLER_1_273
*1019 FILLER_1_281
*1020 FILLER_1_289
*1021 FILLER_1_297
*1022 FILLER_1_299
*1023 FILLER_1_301
*1024 FILLER_1_309
*1025 FILLER_1_317
*1026 FILLER_1_325
*1027 FILLER_1_333
*1028 FILLER_1_341
*1029 FILLER_1_349
*1030 FILLER_1_357
*1031 FILLER_1_359
*1032 FILLER_1_361
*1033 FILLER_1_369
*1034 FILLER_1_377
*1035 FILLER_1_385
*1036 FILLER_1_393
*1037 FILLER_1_401
*1038 FILLER_1_409
*1039 FILLER_1_417
*1040 FILLER_1_419
*1041 FILLER_1_421
*1042 FILLER_1_429
*1043 FILLER_1_437
*1044 FILLER_1_445
*1045 FILLER_1_453
*1046 FILLER_1_461
*1047 FILLER_1_469
*1048 FILLER_1_477
*1049 FILLER_1_479
*1050 FILLER_1_481
*1051 FILLER_1_489
*1052 FILLER_1_497
*1053 FILLER_1_505
*1054 FILLER_2_4
*1055 FILLER_2_12
*1056 FILLER_2_20
*1057 FILLER_2_28
*1058 FILLER_2_31
*1059 FILLER_2_39
*1060 FILLER_2_47
*1061 FILLER_2_55
*1062 FILLER_2_63
*1063 FILLER_2_71
*1064 FILLER_2_79
*1065 FILLER_2_87
*1066 FILLER_2_89
*1067 FILLER_2_91
*1068 FILLER_2_99
*1069 FILLER_2_107
*1070 FILLER_2_115
*1071 FILLER_2_123
*1072 FILLER_2_131
*1073 FILLER_2_139
*1074 FILLER_2_147
*1075 FILLER_2_149
*1076 FILLER_2_151
*1077 FILLER_2_159
*1078 FILLER_2_167
*1079 FILLER_2_175
*1080 FILLER_2_183
*1081 FILLER_2_191
*1082 FILLER_2_199
*1083 FILLER_2_207
*1084 FILLER_2_209
*1085 FILLER_2_211
*1086 FILLER_2_219
*1087 FILLER_2_227
*1088 FILLER_2_235
*1089 FILLER_2_243
*1090 FILLER_2_251
*1091 FILLER_2_259
*1092 FILLER_2_267
*1093 FILLER_2_269
*1094 FILLER_2_271
*1095 FILLER_2_279
*1096 FILLER_2_287
*1097 FILLER_2_295
*1098 FILLER_2_303
*1099 FILLER_2_311
*1100 FILLER_2_319
*1101 FILLER_2_327
*1102 FILLER_2_329
*1103 FILLER_2_331
*1104 FILLER_2_339
*1105 FILLER_2_347
*1106 FILLER_2_355
*1107 FILLER_2_363
*1108 FILLER_2_371
*1109 FILLER_2_379
*1110 FILLER_2_387
*1111 FILLER_2_389
*1112 FILLER_2_391
*1113 FILLER_2_399
*1114 FILLER_2_407
*1115 FILLER_2_415
*1116 FILLER_2_423
*1117 FILLER_2_431
*1118 FILLER_2_439
*1119 FILLER_2_447
*1120 FILLER_2_449
*1121 FILLER_2_451
*1122 FILLER_2_459
*1123 FILLER_2_467
*1124 FILLER_2_475
*1125 FILLER_2_483
*1126 FILLER_2_491
*1127 FILLER_2_499
*1128 FILLER_2_503
*1129 FILLER_2_505
*1130 FILLER_3_4
*1131 FILLER_3_12
*1132 FILLER_3_20
*1133 FILLER_3_28
*1134 FILLER_3_36
*1135 FILLER_3_44
*1136 FILLER_3_52
*1137 FILLER_3_61
*1138 FILLER_3_69
*1139 FILLER_3_77
*1140 FILLER_3_85
*1141 FILLER_3_93
*1142 FILLER_3_101
*1143 FILLER_3_109
*1144 FILLER_3_117
*1145 FILLER_3_119
*1146 FILLER_3_121
*1147 FILLER_3_129
*1148 FILLER_3_137
*1149 FILLER_3_145
*1150 FILLER_3_153
*1151 FILLER_3_161
*1152 FILLER_3_169
*1153 FILLER_3_177
*1154 FILLER_3_179
*1155 FILLER_3_181
*1156 FILLER_3_189
*1157 FILLER_3_197
*1158 FILLER_3_205
*1159 FILLER_3_213
*1160 FILLER_3_221
*1161 FILLER_3_229
*1162 FILLER_3_237
*1163 FILLER_3_239
*1164 FILLER_3_241
*1165 FILLER_3_249
*1166 FILLER_3_257
*1167 FILLER_3_265
*1168 FILLER_3_273
*1169 FILLER_3_281
*1170 FILLER_3_289
*1171 FILLER_3_297
*1172 FILLER_3_299
*1173 FILLER_3_301
*1174 FILLER_3_309
*1175 FILLER_3_317
*1176 FILLER_3_325
*1177 FILLER_3_333
*1178 FILLER_3_341
*1179 FILLER_3_349
*1180 FILLER_3_357
*1181 FILLER_3_359
*1182 FILLER_3_361
*1183 FILLER_3_369
*1184 FILLER_3_377
*1185 FILLER_3_385
*1186 FILLER_3_393
*1187 FILLER_3_401
*1188 FILLER_3_409
*1189 FILLER_3_417
*1190 FILLER_3_419
*1191 FILLER_3_421
*1192 FILLER_3_429
*1193 FILLER_3_437
*1194 FILLER_3_445
*1195 FILLER_3_453
*1196 FILLER_3_461
*1197 FILLER_3_469
*1198 FILLER_3_477
*1199 FILLER_3_479
*1200 FILLER_3_481
*1201 FILLER_3_489
*1202 FILLER_3_497
*1203 FILLER_3_505
*1204 FILLER_4_4
*1205 FILLER_4_12
*1206 FILLER_4_20
*1207 FILLER_4_28
*1208 FILLER_4_31
*1209 FILLER_4_39
*1210 FILLER_4_47
*1211 FILLER_4_55
*1212 FILLER_4_63
*1213 FILLER_4_71
*1214 FILLER_4_79
*1215 FILLER_4_87
*1216 FILLER_4_89
*1217 FILLER_4_91
*1218 FILLER_4_99
*1219 FILLER_4_107
*1220 FILLER_4_115
*1221 FILLER_4_123
*1222 FILLER_4_131
*1223 FILLER_4_139
*1224 FILLER_4_147
*1225 FILLER_4_149
*1226 FILLER_4_151
*1227 FILLER_4_159
*1228 FILLER_4_167
*1229 FILLER_4_175
*1230 FILLER_4_183
*1231 FILLER_4_191
*1232 FILLER_4_199
*1233 FILLER_4_207
*1234 FILLER_4_209
*1235 FILLER_4_211
*1236 FILLER_4_219
*1237 FILLER_4_227
*1238 FILLER_4_235
*1239 FILLER_4_243
*1240 FILLER_4_251
*1241 FILLER_4_259
*1242 FILLER_4_267
*1243 FILLER_4_269
*1244 FILLER_4_271
*1245 FILLER_4_279
*1246 FILLER_4_287
*1247 FILLER_4_295
*1248 FILLER_4_303
*1249 FILLER_4_311
*1250 FILLER_4_319
*1251 FILLER_4_327
*1252 FILLER_4_329
*1253 FILLER_4_331
*1254 FILLER_4_339
*1255 FILLER_4_347
*1256 FILLER_4_355
*1257 FILLER_4_363
*1258 FILLER_4_371
*1259 FILLER_4_379
*1260 FILLER_4_387
*1261 FILLER_4_389
*1262 FILLER_4_391
*1263 FILLER_4_399
*1264 FILLER_4_407
*1265 FILLER_4_415
*1266 FILLER_4_423
*1267 FILLER_4_431
*1268 FILLER_4_439
*1269 FILLER_4_447
*1270 FILLER_4_449
*1271 FILLER_4_451
*1272 FILLER_4_459
*1273 FILLER_4_467
*1274 FILLER_4_475
*1275 FILLER_4_483
*1276 FILLER_4_491
*1277 FILLER_4_499
*1278 FILLER_4_503
*1279 FILLER_4_505
*1280 FILLER_5_4
*1281 FILLER_5_12
*1282 FILLER_5_20
*1283 FILLER_5_28
*1284 FILLER_5_36
*1285 FILLER_5_44
*1286 FILLER_5_52
*1287 FILLER_5_61
*1288 FILLER_5_69
*1289 FILLER_5_77
*1290 FILLER_5_85
*1291 FILLER_5_93
*1292 FILLER_5_101
*1293 FILLER_5_109
*1294 FILLER_5_117
*1295 FILLER_5_119
*1296 FILLER_5_121
*1297 FILLER_5_129
*1298 FILLER_5_137
*1299 FILLER_5_145
*1300 FILLER_5_153
*1301 FILLER_5_161
*1302 FILLER_5_169
*1303 FILLER_5_177
*1304 FILLER_5_179
*1305 FILLER_5_181
*1306 FILLER_5_189
*1307 FILLER_5_197
*1308 FILLER_5_205
*1309 FILLER_5_213
*1310 FILLER_5_221
*1311 FILLER_5_229
*1312 FILLER_5_237
*1313 FILLER_5_239
*1314 FILLER_5_241
*1315 FILLER_5_249
*1316 FILLER_5_257
*1317 FILLER_5_265
*1318 FILLER_5_273
*1319 FILLER_5_281
*1320 FILLER_5_289
*1321 FILLER_5_297
*1322 FILLER_5_299
*1323 FILLER_5_301
*1324 FILLER_5_309
*1325 FILLER_5_317
*1326 FILLER_5_325
*1327 FILLER_5_333
*1328 FILLER_5_341
*1329 FILLER_5_349
*1330 FILLER_5_357
*1331 FILLER_5_359
*1332 FILLER_5_361
*1333 FILLER_5_369
*1334 FILLER_5_377
*1335 FILLER_5_385
*1336 FILLER_5_393
*1337 FILLER_5_401
*1338 FILLER_5_409
*1339 FILLER_5_417
*1340 FILLER_5_419
*1341 FILLER_5_421
*1342 FILLER_5_429
*1343 FILLER_5_437
*1344 FILLER_5_445
*1345 FILLER_5_453
*1346 FILLER_5_461
*1347 FILLER_5_469
*1348 FILLER_5_477
*1349 FILLER_5_479
*1350 FILLER_5_481
*1351 FILLER_5_489
*1352 FILLER_5_497
*1353 FILLER_5_505
*1354 FILLER_6_4
*1355 FILLER_6_12
*1356 FILLER_6_20
*1357 FILLER_6_28
*1358 FILLER_6_31
*1359 FILLER_6_39
*1360 FILLER_6_47
*1361 FILLER_6_55
*1362 FILLER_6_63
*1363 FILLER_6_71
*1364 FILLER_6_79
*1365 FILLER_6_87
*1366 FILLER_6_89
*1367 FILLER_6_91
*1368 FILLER_6_99
*1369 FILLER_6_107
*1370 FILLER_6_115
*1371 FILLER_6_123
*1372 FILLER_6_131
*1373 FILLER_6_139
*1374 FILLER_6_147
*1375 FILLER_6_149
*1376 FILLER_6_151
*1377 FILLER_6_159
*1378 FILLER_6_167
*1379 FILLER_6_175
*1380 FILLER_6_183
*1381 FILLER_6_191
*1382 FILLER_6_199
*1383 FILLER_6_207
*1384 FILLER_6_209
*1385 FILLER_6_211
*1386 FILLER_6_219
*1387 FILLER_6_227
*1388 FILLER_6_235
*1389 FILLER_6_243
*1390 FILLER_6_251
*1391 FILLER_6_259
*1392 FILLER_6_267
*1393 FILLER_6_269
*1394 FILLER_6_271
*1395 FILLER_6_279
*1396 FILLER_6_287
*1397 FILLER_6_295
*1398 FILLER_6_303
*1399 FILLER_6_311
*1400 FILLER_6_319
*1401 FILLER_6_327
*1402 FILLER_6_329
*1403 FILLER_6_331
*1404 FILLER_6_339
*1405 FILLER_6_347
*1406 FILLER_6_355
*1407 FILLER_6_363
*1408 FILLER_6_371
*1409 FILLER_6_379
*1410 FILLER_6_387
*1411 FILLER_6_389
*1412 FILLER_6_391
*1413 FILLER_6_399
*1414 FILLER_6_407
*1415 FILLER_6_415
*1416 FILLER_6_423
*1417 FILLER_6_431
*1418 FILLER_6_439
*1419 FILLER_6_447
*1420 FILLER_6_449
*1421 FILLER_6_451
*1422 FILLER_6_459
*1423 FILLER_6_467
*1424 FILLER_6_475
*1425 FILLER_6_483
*1426 FILLER_6_491
*1427 FILLER_6_499
*1428 FILLER_6_503
*1429 FILLER_6_505
*1430 FILLER_7_4
*1431 FILLER_7_12
*1432 FILLER_7_20
*1433 FILLER_7_28
*1434 FILLER_7_36
*1435 FILLER_7_44
*1436 FILLER_7_52
*1437 FILLER_7_61
*1438 FILLER_7_69
*1439 FILLER_7_77
*1440 FILLER_7_85
*1441 FILLER_7_93
*1442 FILLER_7_101
*1443 FILLER_7_109
*1444 FILLER_7_117
*1445 FILLER_7_119
*1446 FILLER_7_121
*1447 FILLER_7_129
*1448 FILLER_7_137
*1449 FILLER_7_145
*1450 FILLER_7_153
*1451 FILLER_7_161
*1452 FILLER_7_169
*1453 FILLER_7_177
*1454 FILLER_7_179
*1455 FILLER_7_181
*1456 FILLER_7_189
*1457 FILLER_7_197
*1458 FILLER_7_205
*1459 FILLER_7_213
*1460 FILLER_7_221
*1461 FILLER_7_229
*1462 FILLER_7_237
*1463 FILLER_7_239
*1464 FILLER_7_241
*1465 FILLER_7_249
*1466 FILLER_7_257
*1467 FILLER_7_265
*1468 FILLER_7_273
*1469 FILLER_7_281
*1470 FILLER_7_289
*1471 FILLER_7_297
*1472 FILLER_7_299
*1473 FILLER_7_301
*1474 FILLER_7_309
*1475 FILLER_7_317
*1476 FILLER_7_325
*1477 FILLER_7_333
*1478 FILLER_7_341
*1479 FILLER_7_349
*1480 FILLER_7_357
*1481 FILLER_7_359
*1482 FILLER_7_361
*1483 FILLER_7_369
*1484 FILLER_7_377
*1485 FILLER_7_385
*1486 FILLER_7_393
*1487 FILLER_7_401
*1488 FILLER_7_409
*1489 FILLER_7_417
*1490 FILLER_7_419
*1491 FILLER_7_421
*1492 FILLER_7_429
*1493 FILLER_7_437
*1494 FILLER_7_445
*1495 FILLER_7_453
*1496 FILLER_7_461
*1497 FILLER_7_469
*1498 FILLER_7_477
*1499 FILLER_7_479
*1500 FILLER_7_481
*1501 FILLER_7_489
*1502 FILLER_7_497
*1503 FILLER_7_505
*1504 FILLER_8_4
*1505 FILLER_8_12
*1506 FILLER_8_20
*1507 FILLER_8_28
*1508 FILLER_8_31
*1509 FILLER_8_39
*1510 FILLER_8_47
*1511 FILLER_8_55
*1512 FILLER_8_63
*1513 FILLER_8_71
*1514 FILLER_8_79
*1515 FILLER_8_87
*1516 FILLER_8_89
*1517 FILLER_8_91
*1518 FILLER_8_99
*1519 FILLER_8_107
*1520 FILLER_8_115
*1521 FILLER_8_123
*1522 FILLER_8_131
*1523 FILLER_8_139
*1524 FILLER_8_147
*1525 FILLER_8_149
*1526 FILLER_8_151
*1527 FILLER_8_159
*1528 FILLER_8_167
*1529 FILLER_8_175
*1530 FILLER_8_183
*1531 FILLER_8_191
*1532 FILLER_8_199
*1533 FILLER_8_207
*1534 FILLER_8_209
*1535 FILLER_8_211
*1536 FILLER_8_219
*1537 FILLER_8_227
*1538 FILLER_8_235
*1539 FILLER_8_243
*1540 FILLER_8_251
*1541 FILLER_8_259
*1542 FILLER_8_267
*1543 FILLER_8_269
*1544 FILLER_8_271
*1545 FILLER_8_279
*1546 FILLER_8_287
*1547 FILLER_8_295
*1548 FILLER_8_303
*1549 FILLER_8_311
*1550 FILLER_8_319
*1551 FILLER_8_327
*1552 FILLER_8_329
*1553 FILLER_8_331
*1554 FILLER_8_339
*1555 FILLER_8_347
*1556 FILLER_8_355
*1557 FILLER_8_363
*1558 FILLER_8_371
*1559 FILLER_8_379
*1560 FILLER_8_387
*1561 FILLER_8_389
*1562 FILLER_8_391
*1563 FILLER_8_399
*1564 FILLER_8_407
*1565 FILLER_8_415
*1566 FILLER_8_423
*1567 FILLER_8_431
*1568 FILLER_8_439
*1569 FILLER_8_447
*1570 FILLER_8_449
*1571 FILLER_8_451
*1572 FILLER_8_459
*1573 FILLER_8_467
*1574 FILLER_8_475
*1575 FILLER_8_483
*1576 FILLER_8_491
*1577 FILLER_8_499
*1578 FILLER_8_503
*1579 FILLER_8_505
*1580 FILLER_9_4
*1581 FILLER_9_12
*1582 FILLER_9_20
*1583 FILLER_9_28
*1584 FILLER_9_36
*1585 FILLER_9_44
*1586 FILLER_9_52
*1587 FILLER_9_61
*1588 FILLER_9_69
*1589 FILLER_9_77
*1590 FILLER_9_85
*1591 FILLER_9_93
*1592 FILLER_9_101
*1593 FILLER_9_109
*1594 FILLER_9_117
*1595 FILLER_9_119
*1596 FILLER_9_121
*1597 FILLER_9_129
*1598 FILLER_9_137
*1599 FILLER_9_145
*1600 FILLER_9_153
*1601 FILLER_9_161
*1602 FILLER_9_169
*1603 FILLER_9_177
*1604 FILLER_9_179
*1605 FILLER_9_181
*1606 FILLER_9_189
*1607 FILLER_9_197
*1608 FILLER_9_205
*1609 FILLER_9_213
*1610 FILLER_9_221
*1611 FILLER_9_229
*1612 FILLER_9_237
*1613 FILLER_9_239
*1614 FILLER_9_241
*1615 FILLER_9_249
*1616 FILLER_9_257
*1617 FILLER_9_265
*1618 FILLER_9_273
*1619 FILLER_9_281
*1620 FILLER_9_289
*1621 FILLER_9_297
*1622 FILLER_9_299
*1623 FILLER_9_301
*1624 FILLER_9_309
*1625 FILLER_9_317
*1626 FILLER_9_325
*1627 FILLER_9_333
*1628 FILLER_9_341
*1629 FILLER_9_349
*1630 FILLER_9_357
*1631 FILLER_9_359
*1632 FILLER_9_361
*1633 FILLER_9_369
*1634 FILLER_9_377
*1635 FILLER_9_385
*1636 FILLER_9_393
*1637 FILLER_9_401
*1638 FILLER_9_409
*1639 FILLER_9_417
*1640 FILLER_9_419
*1641 FILLER_9_421
*1642 FILLER_9_429
*1643 FILLER_9_437
*1644 FILLER_9_445
*1645 FILLER_9_453
*1646 FILLER_9_461
*1647 FILLER_9_469
*1648 FILLER_9_477
*1649 FILLER_9_479
*1650 FILLER_9_481
*1651 FILLER_9_489
*1652 FILLER_9_497
*1653 FILLER_9_505
*1654 FILLER_10_4
*1655 FILLER_10_12
*1656 FILLER_10_20
*1657 FILLER_10_28
*1658 FILLER_10_31
*1659 FILLER_10_39
*1660 FILLER_10_47
*1661 FILLER_10_55
*1662 FILLER_10_63
*1663 FILLER_10_71
*1664 FILLER_10_79
*1665 FILLER_10_87
*1666 FILLER_10_89
*1667 FILLER_10_91
*1668 FILLER_10_99
*1669 FILLER_10_107
*1670 FILLER_10_115
*1671 FILLER_10_123
*1672 FILLER_10_131
*1673 FILLER_10_139
*1674 FILLER_10_147
*1675 FILLER_10_149
*1676 FILLER_10_151
*1677 FILLER_10_159
*1678 FILLER_10_167
*1679 FILLER_10_175
*1680 FILLER_10_183
*1681 FILLER_10_191
*1682 FILLER_10_199
*1683 FILLER_10_207
*1684 FILLER_10_209
*1685 FILLER_10_211
*1686 FILLER_10_219
*1687 FILLER_10_227
*1688 FILLER_10_235
*1689 FILLER_10_243
*1690 FILLER_10_251
*1691 FILLER_10_259
*1692 FILLER_10_267
*1693 FILLER_10_269
*1694 FILLER_10_271
*1695 FILLER_10_279
*1696 FILLER_10_287
*1697 FILLER_10_295
*1698 FILLER_10_303
*1699 FILLER_10_311
*1700 FILLER_10_319
*1701 FILLER_10_327
*1702 FILLER_10_329
*1703 FILLER_10_331
*1704 FILLER_10_339
*1705 FILLER_10_347
*1706 FILLER_10_355
*1707 FILLER_10_363
*1708 FILLER_10_371
*1709 FILLER_10_379
*1710 FILLER_10_387
*1711 FILLER_10_389
*1712 FILLER_10_391
*1713 FILLER_10_399
*1714 FILLER_10_407
*1715 FILLER_10_415
*1716 FILLER_10_423
*1717 FILLER_10_431
*1718 FILLER_10_439
*1719 FILLER_10_447
*1720 FILLER_10_449
*1721 FILLER_10_451
*1722 FILLER_10_459
*1723 FILLER_10_467
*1724 FILLER_10_475
*1725 FILLER_10_483
*1726 FILLER_10_491
*1727 FILLER_10_499
*1728 FILLER_10_503
*1729 FILLER_10_505
*1730 FILLER_11_4
*1731 FILLER_11_12
*1732 FILLER_11_20
*1733 FILLER_11_28
*1734 FILLER_11_36
*1735 FILLER_11_44
*1736 FILLER_11_52
*1737 FILLER_11_61
*1738 FILLER_11_69
*1739 FILLER_11_77
*1740 FILLER_11_85
*1741 FILLER_11_93
*1742 FILLER_11_101
*1743 FILLER_11_109
*1744 FILLER_11_117
*1745 FILLER_11_119
*1746 FILLER_11_121
*1747 FILLER_11_129
*1748 FILLER_11_137
*1749 FILLER_11_145
*1750 FILLER_11_153
*1751 FILLER_11_161
*1752 FILLER_11_169
*1753 FILLER_11_177
*1754 FILLER_11_179
*1755 FILLER_11_181
*1756 FILLER_11_189
*1757 FILLER_11_197
*1758 FILLER_11_205
*1759 FILLER_11_213
*1760 FILLER_11_221
*1761 FILLER_11_229
*1762 FILLER_11_237
*1763 FILLER_11_239
*1764 FILLER_11_241
*1765 FILLER_11_249
*1766 FILLER_11_257
*1767 FILLER_11_265
*1768 FILLER_11_273
*1769 FILLER_11_281
*1770 FILLER_11_289
*1771 FILLER_11_297
*1772 FILLER_11_299
*1773 FILLER_11_301
*1774 FILLER_11_309
*1775 FILLER_11_317
*1776 FILLER_11_325
*1777 FILLER_11_333
*1778 FILLER_11_341
*1779 FILLER_11_349
*1780 FILLER_11_357
*1781 FILLER_11_359
*1782 FILLER_11_361
*1783 FILLER_11_369
*1784 FILLER_11_377
*1785 FILLER_11_385
*1786 FILLER_11_393
*1787 FILLER_11_401
*1788 FILLER_11_409
*1789 FILLER_11_417
*1790 FILLER_11_419
*1791 FILLER_11_421
*1792 FILLER_11_429
*1793 FILLER_11_437
*1794 FILLER_11_445
*1795 FILLER_11_453
*1796 FILLER_11_461
*1797 FILLER_11_469
*1798 FILLER_11_477
*1799 FILLER_11_479
*1800 FILLER_11_481
*1801 FILLER_11_489
*1802 FILLER_11_497
*1803 FILLER_11_505
*1804 FILLER_12_4
*1805 FILLER_12_12
*1806 FILLER_12_20
*1807 FILLER_12_28
*1808 FILLER_12_31
*1809 FILLER_12_39
*1810 FILLER_12_47
*1811 FILLER_12_55
*1812 FILLER_12_63
*1813 FILLER_12_71
*1814 FILLER_12_79
*1815 FILLER_12_87
*1816 FILLER_12_89
*1817 FILLER_12_91
*1818 FILLER_12_99
*1819 FILLER_12_107
*1820 FILLER_12_115
*1821 FILLER_12_123
*1822 FILLER_12_131
*1823 FILLER_12_139
*1824 FILLER_12_147
*1825 FILLER_12_149
*1826 FILLER_12_151
*1827 FILLER_12_159
*1828 FILLER_12_167
*1829 FILLER_12_175
*1830 FILLER_12_183
*1831 FILLER_12_191
*1832 FILLER_12_199
*1833 FILLER_12_207
*1834 FILLER_12_209
*1835 FILLER_12_211
*1836 FILLER_12_219
*1837 FILLER_12_227
*1838 FILLER_12_235
*1839 FILLER_12_243
*1840 FILLER_12_251
*1841 FILLER_12_259
*1842 FILLER_12_267
*1843 FILLER_12_269
*1844 FILLER_12_271
*1845 FILLER_12_279
*1846 FILLER_12_287
*1847 FILLER_12_295
*1848 FILLER_12_303
*1849 FILLER_12_311
*1850 FILLER_12_319
*1851 FILLER_12_327
*1852 FILLER_12_329
*1853 FILLER_12_331
*1854 FILLER_12_339
*1855 FILLER_12_347
*1856 FILLER_12_355
*1857 FILLER_12_363
*1858 FILLER_12_371
*1859 FILLER_12_379
*1860 FILLER_12_387
*1861 FILLER_12_389
*1862 FILLER_12_391